LTspice 24.1.10 for Windows
Circuit: C:\Users\Anant\Desktop\Analog\analog\analog\6 - Inverting Non Inverting\inverting.net
Start Time: Mon Dec  1 10:12:36 2025
solver = Normal
Maximum thread count: 4
tnom = 27
temp = 27
method = trap
C:\Users\Anant\Desktop\Analog\analog\analog\6 - Inverting Non Inverting\inverting.net(4): Limiting rise time to 1e-05.

V1 N004 0 PULSE(-1 1 0 0 0 100u 200u)
^^^^^^^^^^^^^^^^^^^^^^^^^^^^^^^^^^^^^
C:\Users\Anant\Desktop\Analog\analog\analog\6 - Inverting Non Inverting\inverting.net(4): Limiting fall time to 1e-05.

V1 N004 0 PULSE(-1 1 0 0 0 100u 200u)
^^^^^^^^^^^^^^^^^^^^^^^^^^^^^^^^^^^^^
Direct Newton iteration for .op point succeeded.
Total elapsed time: 1.566 seconds.

Files loaded:
C:\Users\Anant\Desktop\Analog\analog\analog\6 - Inverting Non Inverting\inverting.net
C:\Users\Anant\AppData\Local\LTspice\lib\sub\LTC.lib

