LTspice 24.1.10 for Windows
Circuit: C:\Users\Anant\Desktop\Analog\analog\analog\6 - Inverting Non Inverting\non inverting.net
Start Time: Mon Dec  1 10:09:14 2025
solver = Normal
Maximum thread count: 4
tnom = 27
temp = 27
method = trap
Direct Newton iteration for .op point succeeded.
Total elapsed time: 0.145 seconds.

Files loaded:
C:\Users\Anant\Desktop\Analog\analog\analog\6 - Inverting Non Inverting\non inverting.net
C:\Users\Anant\AppData\Local\LTspice\lib\sub\LTC.lib

